17
Coordinates from ORCA-job file_input E -1865.329714806250
  Cu     -0.204600      0.432180      0.000163
  N      -0.244590      2.479694     -0.323097
  N      -2.252175      0.392108      0.323182
  N      -0.164447     -1.615788     -0.323088
  N       1.843462      0.472070      0.323043
  H      -0.255661      3.041355      0.546798
  H      -1.070551      2.788457     -0.864290
  H       0.569801      2.820428     -0.862683
  H      -2.813695      0.380767     -0.546800
  H      -2.593416      1.205367      0.864109
  H      -2.560531     -0.434959      0.862960
  H      -0.151198     -2.178188      0.546296
  H      -0.978367     -1.957194     -0.862901
  H       0.661832     -1.922979     -0.864759
  H       2.405783      0.481483     -0.546439
  H       2.152498      1.298580      0.863227
  H       2.183175     -0.341681      0.864260
17
Coordinates from ORCA-job file_input E -1865.329715655817
  Cu     -0.204530      0.432110      0.000140
  N      -0.244534      2.479853     -0.323102
  N      -2.252322      0.392022      0.323191
  N      -0.164350     -1.616006     -0.323292
  N       1.843668      0.472009      0.323240
  H      -0.255143      3.041286      0.546936
  H      -1.070826      2.788744     -0.863753
  H       0.569264      2.820578     -0.863611
  H      -2.813626      0.380805     -0.546920
  H      -2.593598      1.205317      0.864074
  H      -2.560762     -0.434754      0.863395
  H      -0.151652     -2.178153      0.546252
  H      -0.978112     -1.957373     -0.863413
  H       0.661865     -1.923411     -0.864947
  H       2.405742      0.481353     -0.546391
  H       2.152744      1.298676      0.863213
  H       2.183491     -0.341357      0.864969
