17
Coordinates from ORCA-job file_input E -1865.296314831897
  Cu     -0.204280      0.431860     -0.003480
  N      -0.243460      2.201800     -0.871330
  N      -1.970530      0.401590      0.869750
  N      -0.165080     -1.338100     -0.871310
  N       1.561960      0.462150      0.869760
  H      -0.250770      2.843390     -0.041310
  H      -1.106210      2.406060     -1.408720
  H       0.622560      2.440720     -1.411860
  H      -2.617040      0.386880      0.043700
  H      -2.202140      1.254250      1.411970
  H      -2.170850     -0.474650      1.409450
  H      -0.157390     -1.979670     -0.041290
  H      -1.031270     -1.577150     -1.411510
  H       0.697500     -1.542240     -1.409020
  H       2.208460      0.477940      0.043720
  H       1.761950      1.337880      1.410390
  H       1.793910     -0.391010      1.411070
17
Coordinates from ORCA-job file_input E -1865.307946401457
  Cu     -0.204360      0.431931     -0.003106
  N      -0.242250      2.232339     -0.850414
  N      -2.001615      0.399240      0.849086
  N      -0.163846     -1.365871     -0.855828
  N       1.590267      0.462006      0.854695
  H      -0.236822      2.894648     -0.055256
  H      -1.094769      2.440009     -1.394093
  H       0.590002      2.459255     -1.416976
  H      -2.667460      0.371003      0.057474
  H      -2.237290      1.241646      1.397001
  H      -2.192466     -0.442823      1.414317
  H      -0.141329     -2.029972     -0.062467
  H      -1.008848     -1.603216     -1.398750
  H       0.675567     -1.560601     -1.424132
  H       2.258988      0.464580      0.065011
  H       1.790352      1.316220      1.398081
  H       1.813199     -0.368695      1.425338
17
Coordinates from ORCA-job file_input E -1865.318883365136
  Cu     -0.203185      0.430836     -0.002520
  N      -0.238615      2.287577     -0.807174
  N      -2.057666      0.393477      0.806171
  N      -0.160541     -1.418943     -0.822825
  N       1.644362      0.460889      0.822295
  H      -0.218971      2.990041     -0.054724
  H      -1.084792      2.499071     -1.359466
  H       0.556889      2.502124     -1.422732
  H      -2.761868      0.349862      0.056377
  H      -2.298432      1.229233      1.362312
  H      -2.239506     -0.411775      1.419489
  H      -0.119080     -2.126239     -0.075777
  H      -0.994739     -1.655738     -1.375804
  H       0.646465     -1.601131     -1.440290
  H       2.355817      0.446647      0.078216
  H       1.845952      1.304019      1.375595
  H       1.855231     -0.338250      1.440837
17
Coordinates from ORCA-job file_input E -1865.323077072226
  Cu     -0.202557      0.430251     -0.002101
  N      -0.236410      2.328510     -0.768476
  N      -2.099188      0.389658      0.767673
  N      -0.158871     -1.459186     -0.789523
  N       1.685351      0.460865      0.789304
  H      -0.209746      3.056672     -0.037042
  H      -1.082963      2.540577     -1.324215
  H       0.545810      2.539290     -1.408654
  H      -2.827988      0.338258      0.038166
  H      -2.341491      1.225611      1.327094
  H      -2.278950     -0.402360      1.405216
  H      -0.107982     -2.193271     -0.065246
  H      -0.994345     -1.695504     -1.348792
  H       0.634273     -1.636409     -1.429344
  H       2.423176      0.438318      0.067373
  H       1.887479      1.305100      1.348776
  H       1.891719     -0.324679      1.429773
17
Coordinates from ORCA-job file_input E -1865.325447020085
  Cu     -0.203051      0.430708     -0.001521
  N      -0.235897      2.374725     -0.714875
  N      -2.146177      0.387267      0.714358
  N      -0.159159     -1.504743     -0.736919
  N       1.731709      0.462983      0.736943
  H      -0.206480      3.122756      0.000017
  H      -1.081782      2.583721     -1.276079
  H       0.544228      2.585052     -1.363233
  H      -2.893795      0.332503      0.000469
  H      -2.386348      1.222534      1.279011
  H      -2.326702     -0.402639      1.359846
  H      -0.103855     -2.257967     -0.029022
  H      -0.994794     -1.738449     -1.303195
  H       0.631193     -1.680989     -1.383244
  H       2.487904      0.436468      0.030501
  H       1.932403      1.307319      1.302977
  H       1.937922     -0.319548      1.383945
17
Coordinates from ORCA-job file_input E -1865.326400624331
  Cu     -0.204259      0.431835     -0.001089
  N      -0.237353      2.401099     -0.674426
  N      -2.173094      0.387617      0.674134
  N      -0.161058     -1.530799     -0.692346
  N       1.758193      0.465898      0.692434
  H      -0.212421      3.151308      0.039613
  H      -1.080223      2.605981     -1.241473
  H       0.552290      2.613536     -1.311612
  H      -2.922484      0.337218     -0.039474
  H      -2.409489      1.220015      1.244422
  H      -2.355813     -0.411733      1.308436
  H      -0.109807     -2.284354      0.016748
  H      -0.994236     -1.762168     -1.264000
  H       0.638138     -1.709655     -1.327286
  H       2.513959      0.442958     -0.015833
  H       1.957261      1.307932      1.263299
  H       1.967716     -0.324989      1.328434
17
Coordinates from ORCA-job file_input E -1865.327298742959
  Cu     -0.205942      0.433417     -0.000548
  N      -0.240033      2.426417     -0.620853
  N      -2.199005      0.389217      0.620817
  N      -0.163920     -1.555883     -0.631286
  N       1.783679      0.469722      0.631384
  H      -0.223810      3.166138      0.104535
  H      -1.078153      2.628017     -1.194345
  H       0.565949      2.642654     -1.235173
  H      -2.937616      0.347972     -0.104734
  H      -2.432216      1.216942      1.197453
  H      -2.385132     -0.426514      1.232128
  H      -0.121868     -2.296241      0.092357
  H      -0.992555     -1.786760     -1.208294
  H       0.651074     -1.739526     -1.243427
  H       2.525245      0.454660     -0.092107
  H       1.982892      1.307683      1.206752
  H       1.998730     -0.336216      1.245320
17
Coordinates from ORCA-job file_input E -1865.327914334801
  Cu     -0.206900      0.434330     -0.000124
  N      -0.242303      2.440550     -0.572712
  N      -2.213494      0.390888      0.572839
  N      -0.165803     -1.570458     -0.576681
  N       1.798489      0.472147      0.576752
  H      -0.235354      3.158944      0.173170
  H      -1.076227      2.644068     -1.149752
  H       0.576334      2.662358     -1.166082
  H      -2.930726      0.359742     -0.173538
  H      -2.448507      1.214310      1.153002
  H      -2.404602     -0.437704      1.163053
  H      -0.133941     -2.287609      0.169695
  H      -0.989942     -1.805590     -1.156259
  H       0.661799     -1.760441     -1.168094
  H       2.516049      0.465727     -0.169871
  H       2.002196      1.306225      1.154016
  H       2.020254     -0.345788      1.170567
17
Coordinates from ORCA-job file_input E -1865.328409830387
  Cu     -0.206952      0.434391      0.000182
  N      -0.243794      2.447384     -0.526838
  N      -2.220480      0.392133      0.527031
  N      -0.166366     -1.578600     -0.526748
  N       1.806748      0.472974      0.526795
  H      -0.245525      3.136067      0.245467
  H      -1.074657      2.659968     -1.103833
  H       0.581304      2.679385     -1.105241
  H      -2.908119      0.370350     -0.245870
  H      -2.464464      1.212362      1.106806
  H      -2.421133     -0.443146      1.102505
  H      -0.143656     -2.265424      0.246797
  H      -0.986928     -1.824426     -1.105265
  H       0.667836     -1.779001     -1.103799
  H       2.493441      0.474538     -0.247166
  H       2.021002      1.303986      1.102928
  H       2.039061     -0.351241      1.106228
17
Coordinates from ORCA-job file_input E -1865.328830427074
  Cu     -0.206283      0.433770      0.000371
  N      -0.244465      2.450793     -0.482293
  N      -2.223877      0.392774      0.482473
  N      -0.165815     -1.583929     -0.480944
  N       1.812102      0.472531      0.480985
  H      -0.253167      3.106218      0.317512
  H      -1.073202      2.680118     -1.055614
  H       0.580438      2.700079     -1.052482
  H      -2.878496      0.377966     -0.317863
  H      -2.484695      1.210870      1.057577
  H      -2.441227     -0.442432      1.050683
  H      -0.149378     -2.238356      0.319625
  H      -0.984036     -1.847346     -1.054523
  H       0.668384     -1.801226     -1.051165
  H       2.466141      0.480122     -0.319997
  H       2.043533      1.301423      1.053000
  H       2.061362     -0.351674      1.052635
17
Coordinates from ORCA-job file_input E -1865.329217460514
  Cu     -0.205281      0.432830      0.000480
  N      -0.244633      2.455083     -0.433458
  N      -2.228049      0.392939      0.433591
  N      -0.164732     -1.590360     -0.432592
  N       1.818492      0.471549      0.432626
  H      -0.258596      3.075724      0.393393
  H      -1.071460      2.708973     -0.999895
  H       0.575719      2.730862     -0.998086
  H      -2.848190      0.382709     -0.393656
  H      -2.513752      1.209169      1.000186
  H      -2.471430     -0.437820      0.997867
  H      -0.151739     -2.211677      0.393807
  H      -0.981034     -1.878555     -0.997501
  H       0.664953     -1.833249     -0.999248
  H       2.439366      0.483152     -0.394094
  H       2.074240      1.298572      0.997528
  H       2.093447     -0.348202      0.999033
17
Coordinates from ORCA-job file_input E -1865.329513599215
  Cu     -0.204522      0.432117      0.000526
  N      -0.244638      2.462315     -0.383978
  N      -2.235126      0.392821      0.384072
  N      -0.163919     -1.599098     -0.383926
  N       1.827140      0.470929      0.383947
  H      -0.261186      3.053117      0.464956
  H      -1.069571      2.743324     -0.941458
  H       0.570375      2.769074     -0.941409
  H      -2.825674      0.384418     -0.465135
  H      -2.548371      1.206995      0.940116
  H      -2.509272     -0.432896      0.942738
  H      -0.151648     -2.192123      0.463600
  H      -0.978500     -1.914168     -0.938195
  H       0.660636     -1.871995     -0.945371
  H       2.419788      0.483989     -0.463813
  H       2.109509      1.296354      0.939780
  H       2.132297     -0.343472      0.943530
17
Coordinates from ORCA-job file_input E -1865.329660697797
  Cu     -0.204376      0.431982      0.000515
  N      -0.244718      2.470576     -0.346709
  N      -2.243272      0.392661      0.346793
  N      -0.163892     -1.607633     -0.346688
  N       1.835571      0.471153      0.346693
  H      -0.260930      3.043607      0.515168
  H      -1.068564      2.770861     -0.896437
  H       0.568228      2.800562     -0.895015
  H      -2.816126      0.383824     -0.515297
  H      -2.576125      1.205321      0.894362
  H      -2.540634     -0.431495      0.897038
  H      -0.150814     -2.183245      0.513566
  H      -0.977379     -1.941592     -0.892381
  H       0.658975     -1.903206     -0.899975
  H       2.410885      0.483520     -0.513762
  H       2.136843      1.295794      0.894667
  H       2.163649     -0.340990      0.897443
17
Coordinates from ORCA-job file_input E -1865.329701469222
  Cu     -0.204566      0.432161      0.000460
  N      -0.244830      2.475970     -0.329299
  N      -2.248607      0.392568      0.329390
  N      -0.164261     -1.612604     -0.328848
  N       1.840458      0.471700      0.328835
  H      -0.259454      3.042329      0.537473
  H      -1.068729      2.783556     -0.874839
  H       0.568940      2.815253     -0.871067
  H      -2.814761      0.382697     -0.537576
  H      -2.588880      1.204809      0.872972
  H      -2.555310     -0.432895      0.872901
  H      -0.150605     -2.181042      0.536635
  H      -0.977497     -1.953585     -0.870627
  H       0.659945     -1.917455     -0.875347
  H       2.408641      0.482916     -0.536841
  H       2.148862      1.296490      0.872677
  H       2.177974     -0.341167      0.873082
17
Coordinates from ORCA-job file_input E -1865.329709317066
  Cu     -0.204678      0.432263      0.000384
  N      -0.244838      2.478007     -0.324703
  N      -2.250604      0.392475      0.324798
  N      -0.164467     -1.614324     -0.324114
  N       1.842120      0.471986      0.324087
  H      -0.258076      3.042359      0.543507
  H      -1.069354      2.786701     -0.868435
  H       0.569723      2.818785     -0.864264
  H      -2.814739      0.381950     -0.543586
  H      -2.591953      1.204941      0.867132
  H      -2.558856     -0.434154      0.865577
  H      -0.150862     -2.180224      0.543102
  H      -0.977806     -1.956183     -0.864890
  H       0.661054     -1.920892     -0.867540
  H       2.407803      0.482477     -0.543308
  H       2.151488      1.297261      0.866351
  H       2.181364     -0.341728      0.865883
17
Coordinates from ORCA-job file_input E -1865.329712267759
  Cu     -0.204678      0.432259      0.000287
  N      -0.244766      2.479146     -0.322221
  N      -2.251690      0.392326      0.322319
  N      -0.164508     -1.615313     -0.321781
  N       1.843051      0.472093      0.321737
  H      -0.256641      3.041433      0.547324
  H      -1.070089      2.788415     -0.864191
  H       0.569814      2.820482     -0.861252
  H      -2.813780      0.381450     -0.547364
  H      -2.593509      1.205085      0.863717
  H      -2.560600     -0.434819      0.861779
  H      -0.151425     -2.178724      0.547024
  H      -0.977893     -1.957439     -0.862075
  H       0.661823     -1.922801     -0.863299
  H       2.406296      0.482027     -0.547212
  H       2.152790      1.297938      0.862675
  H       2.183126     -0.341857      0.862512
17
Coordinates from ORCA-job file_input E -1865.329714821461
  Cu     -0.204600      0.432180      0.000163
  N      -0.244590      2.479694     -0.323097
  N      -2.252175      0.392108      0.323182
  N      -0.164447     -1.615788     -0.323088
  N       1.843462      0.472070      0.323043
  H      -0.255661      3.041355      0.546798
  H      -1.070551      2.788457     -0.864290
  H       0.569801      2.820428     -0.862683
  H      -2.813695      0.380767     -0.546800
  H      -2.593416      1.205367      0.864109
  H      -2.560531     -0.434959      0.862960
  H      -0.151198     -2.178188      0.546296
  H      -0.978367     -1.957194     -0.862901
  H       0.661832     -1.922979     -0.864759
  H       2.405783      0.481483     -0.546439
  H       2.152498      1.298580      0.863227
  H       2.183175     -0.341681      0.864260
