17
	Energy: -1170509.5180839
Cu        -0.50221        1.15316       -0.36208
N          1.07620        2.33982       -0.59676
N         -2.16178        0.00830       -0.14467
N         -1.55836        2.58953       -0.84143
N          0.58952       -0.40411        0.15411
H          1.91432        2.95410       -0.71686
H          0.46308        3.23002       -0.89111
H          1.75712        1.64031       -0.35235
H         -0.78972        3.22935       -0.97339
H         -2.09034        3.43792       -1.11851
H         -2.50653        2.02169       -0.74182
H         -3.19553       -0.68979       -0.01353
H         -3.13172        0.75416       -0.42132
H         -1.74928       -1.06569        0.18892
H          1.31770       -1.24077        0.44076
H          1.61828        0.19400        0.05117
H         -0.23580       -1.17882        0.32082
